Version 4
SHEET 1 880 680
WIRE 176 -48 144 -48
WIRE 336 -48 256 -48
WIRE 176 0 144 0
FLAG 144 -48 Clk
IOPIN 144 -48 In
FLAG 144 0 INSTR[7:0]
IOPIN 144 0 In
FLAG 336 -48 Out[7:0]
IOPIN 336 -48 Out
SYMBOL ROM 216 -24 R0
WINDOW 0 0 -64 Bottom 2
SYMATTR InstName X1
SYMATTR SpiceLine SIZE=256
TEXT 144 80 Left 2 ;Program:
TEXT 144 112 Left 2 ;LOAD R0 0 -> 11 000 X 00
TEXT 144 144 Left 2 ;LOAD R1 1 -> 11 001 X 01
TEXT 144 176 Left 2 ;ADD R3 R0 R1 -> 00 011 X 00
TEXT 144 208 Left 2 ;STORE R3 -> 10 001 X 11 