Version 4
SHEET 1 880 680
WIRE 176 -48 144 -48
WIRE 336 -48 256 -48
WIRE 176 0 144 0
WIRE 336 0 256 0
WIRE 176 48 144 48
FLAG 144 -48 A[3:0]
IOPIN 144 -48 In
FLAG 144 0 B[3:0]
IOPIN 144 0 In
FLAG 144 48 AddSub1
IOPIN 144 48 In
FLAG 336 -48 Sum[3:0]
IOPIN 336 -48 Out
FLAG 336 0 Cout
IOPIN 336 0 Out
SYMBOL ALU_Core 216 0 R0
WINDOW 0 0 -64 Bottom 2
SYMATTR InstName X1
SYMATTR SpiceLine BITS=4 