Version 4
SHEET 1 1920 1080
WIRE 176 -160 144 -160
WIRE 336 -160 256 -160
WIRE 496 -160 416 -160
WIRE 656 -160 576 -160
WIRE 816 -160 736 -160
WIRE 976 -160 896 -160
WIRE 176 -80 144 -80
WIRE 336 -80 256 -80
WIRE 496 -80 416 -80
WIRE 656 -80 576 -80
WIRE 816 -80 736 -80
WIRE 976 -80 896 -80
WIRE 176 0 144 0
WIRE 336 0 256 0
WIRE 496 0 416 0
WIRE 656 0 576 0
WIRE 816 0 736 0
WIRE 976 0 896 0
FLAG 144 -160 Clk
IOPIN 144 -160 In
FLAG 144 -80 Reset
IOPIN 144 -80 In
FLAG 144 0 Start
IOPIN 144 0 In
FLAG 976 -160 Done
IOPIN 976 -160 Out
FLAG 976 -80 Sum[3:0]
IOPIN 976 -80 Out
FLAG 976 0 Cout
IOPIN 976 0 Out
SYMBOL InstructionMemory 216 -80 R0
SYMATTR InstName X2
SYMBOL DataMem 376 -80 R0
SYMATTR InstName X6
SYMBOL RegisterFile 536 -80 R0
SYMATTR InstName X3
SYMBOL ALU 696 -80 R0
SYMATTR InstName X4
TEXT 144 80 Left 2 ;Instruction Set:
TEXT 144 112 Left 2 ;ADD: 00 Dest:A/B Dest:A/B
TEXT 144 144 Left 2 ;SUB: 01 Dest:A/B Dest:A/B
TEXT 144 176 Left 2 ;LOAD: 11 DataMem Address | Reg used
TEXT 144 208 Left 2 ;STORE: 10 Reg[2:0] | DataMem Address
TEXT 144 272 Left 2 ;Program:
TEXT 144 304 Left 2 ;LOAD R0 0 -> 11 000 X 00
TEXT 144 336 Left 2 ;LOAD R1 1 -> 11 001 X 01
TEXT 144 368 Left 2 ;ADD R3 R0 R1 -> 00 011 X 00
TEXT 144 400 Left 2 ;STORE R3 -> 10 001 X 11 