Version 4
SHEET 1 880 680
WIRE 176 -32 144 -32
WIRE 336 -32 256 -32
WIRE 176 16 144 16
WIRE 336 16 256 16
WIRE 176 64 144 64
FLAG 144 -32 WrMem
IOPIN 144 -32 In
FLAG 144 16 Data[3:0]
IOPIN 144 16 In
FLAG 144 64 WrAddr[1:0]
IOPIN 144 64 In
FLAG 336 -32 Out[3:0]
IOPIN 336 -32 Out
FLAG 336 16 Sel
IOPIN 336 16 Out
SYMBOL SRAM 216 16 R0
WINDOW 0 0 -64 Bottom 2
SYMATTR InstName X1
SYMATTR SpiceLine SIZE=4 