Version 4
SHEET 1 880 680
SYMBOL NAND 48 -64 R0
SYMATTR InstName X1
SYMBOL NAND 176 -64 R0
SYMATTR InstName X2
SYMBOL INVERT 48 48 R0
SYMATTR InstName X3
SYMBOL INVERT 176 48 R0
SYMATTR InstName X4
SYMBOL ANDx 304 -64 R0
SYMATTR InstName X5
SYMBOL ANDx 304 48 R0
SYMATTR InstName X7
FLAG 32 -80 a
FLAG 32 -48 b
FLAG 64 -64 n002
FLAG 192 -64 n004
FLAG 32 32 b
FLAG 160 32 a
FLAG 64 48 n003
FLAG 192 48 n005
FLAG 288 -80 n002
FLAG 288 -48 n004
FLAG 288 32 a
FLAG 288 64 b
FLAG 320 -64 sum0
FLAG 320 48 carry0
SYMBOL port 32 -80 R0
SYMATTR InstName Port1
SYMATTR SpiceModel input
SYMBOL port 32 -48 R0
SYMATTR InstName Port2
SYMATTR SpiceModel input
SYMBOL port 320 -64 R0
SYMATTR InstName Port3
SYMATTR SpiceModel output
SYMBOL port 320 48 R0
SYMATTR InstName Port4
SYMATTR SpiceModel output 