Version 4
SHEET 1 880 680
WIRE 176 -48 144 -48
WIRE 336 -48 256 -48
WIRE 176 0 144 0
WIRE 336 0 256 0
WIRE 176 48 144 48
WIRE 336 48 256 48
WIRE 176 96 144 96
FLAG 144 -48 Clk
IOPIN 144 -48 In
FLAG 144 0 SelA[1:0]
IOPIN 144 0 In
FLAG 144 48 SelB[1:0]
IOPIN 144 48 In
FLAG 144 96 WrAddr[1:0]
IOPIN 144 96 In
FLAG 336 -48 A[3:0]
IOPIN 336 -48 Out
FLAG 336 0 B[3:0]
IOPIN 336 0 Out
FLAG 336 48 We
IOPIN 336 48 Out
SYMBOL Register 216 24 R0
WINDOW 0 0 -64 Bottom 2
SYMATTR InstName X1
SYMATTR SpiceLine BITS=4 